REMARK  Name = 
REMARK  8 active torsions:
REMARK  status: ('A' for Active; 'I' for Inactive)
REMARK    1  A    between atoms: C_1  and  C_2
REMARK    2  A    between atoms: C_2  and  CA_3
REMARK    3  A    between atoms: CA_3  and  C_4
REMARK    4  A    between atoms: CA_3  and  N_6
REMARK    5  A    between atoms: C_4  and  O_5
REMARK    6  A    between atoms: C_7  and  C_9
REMARK    7  A    between atoms: N_11  and  C_26
REMARK    8  A    between atoms: N_16  and  C_25
REMARK                            x       y       z     vdW  Elec       q    Type
REMARK                         _______ _______ _______ _____ _____    ______ ____
ROOT
ATOM      1  C   UNL     1       6.717   0.837  -3.036  0.00  0.00    +0.143 C 
ATOM      2  C   UNL     1       6.888   0.982  -4.560  0.00  0.00    +0.148 C 
ATOM      3  N   UNL     1       8.359   0.916  -4.933  0.00  0.00    +0.240 N 
ATOM      4  C   UNL     1       8.975  -0.437  -4.570  0.00  0.00    +0.100 C 
ATOM      5  C   UNL     1       8.784  -1.528  -5.683  0.00  0.00    +0.096 C 
ATOM      6  C   UNL     1       9.338  -2.821  -5.184  0.00  0.00    -0.016 A 
ATOM      7  C   UNL     1       9.804  -3.954  -5.807  0.00  0.00    +0.090 A 
ATOM      8  N   UNL     1      10.208  -4.836  -4.822  0.00  0.00    -0.349 N 
ATOM      9  C   UNL     1      10.017  -4.283  -3.571  0.00  0.00    +0.050 A 
ATOM     10  C   UNL     1      10.260  -4.744  -2.272  0.00  0.00    +0.026 A 
ATOM     11  C   UNL     1       9.917  -3.890  -1.208  0.00  0.00    +0.003 A 
ATOM     12  C   UNL     1       9.351  -2.627  -1.423  0.00  0.00    +0.009 A 
ATOM     13  C   UNL     1       9.119  -2.179  -2.724  0.00  0.00    -0.007 A 
ATOM     14  C   UNL     1       9.465  -3.032  -3.788  0.00  0.00    +0.011 A 
ATOM     15  C   UNL     1       8.504  -0.914  -3.180  0.00  0.00    +0.005 C 
ATOM     16  C   UNL     1       7.512  -0.325  -2.486  0.00  0.00    +0.000 C 
ATOM     17  C   UNL     1      10.749  -6.155  -5.068  0.00  0.00    +0.149 C 
ATOM     18  C   UNL     1       8.627   1.378  -6.332  0.00  0.00    +0.191 C 
ATOM     19  H   UNL     1       8.841   1.585  -4.320  0.00  0.00    +0.204 HD
ENDROOT
BRANCH   1  21
ATOM     20  N   UNL     1       4.858   0.818  -1.439  0.00  0.00    -0.310 N 
ATOM     21  C   UNL     1       5.226   0.640  -2.754  0.00  0.00    +0.225 C 
ATOM     22  O   UNL     1       4.427   0.360  -3.642  0.00  0.00    -0.275 OA
ATOM     23  H   UNL     1       5.539   1.107  -0.747  0.00  0.00    +0.149 HD
BRANCH  20  24
ATOM     24  CA  UNL     1       3.473   0.623  -0.995  0.00  0.00    +0.098 C 
BRANCH  24  26
ATOM     25  C   UNL     1       2.106  -0.098   1.061  0.00  0.00    +0.006 C 
ATOM     26  C   UNL     1       3.467   0.298   0.510  0.00  0.00    +0.021 C 
ENDBRANCH  24  26
BRANCH  24  27
ATOM     27  C   UNL     1       2.602   1.844  -1.355  0.00  0.00    +0.178 C 
BRANCH  27  28
ATOM     28  O   UNL     1       1.219   1.515  -1.387  0.00  0.00    -0.393 OA
ATOM     29  H   UNL     1       1.077   0.910  -2.137  0.00  0.00    +0.209 HD
ENDBRANCH  27  28
ENDBRANCH  24  27
ENDBRANCH  20  24
ENDBRANCH   1  21
TORSDOF 5
