REMARK  Name = 
REMARK  6 active torsions:
REMARK  status: ('A' for Active; 'I' for Inactive)
REMARK    1  A    between atoms: CB_1  and  CA_2
REMARK    2  A    between atoms: CA_2  and  C_3
REMARK    3  A    between atoms: CA_2  and  N_5
REMARK    4  A    between atoms: C_3  and  O_4
REMARK    5  A    between atoms: C_6  and  C_8
REMARK    6  A    between atoms: N_10  and  C_24
REMARK                            x       y       z     vdW  Elec       q    Type
REMARK                         _______ _______ _______ _____ _____    ______ ____
ROOT
ATOM      1  C   UNK A   0       5.982   2.439  -2.018  0.00  0.00    +0.143 C 
ATOM      2  C   UNK A   0       7.440   2.546  -2.384  0.00  0.00    +0.148 C 
ATOM      3  N   UNK A   0       7.391   3.956  -3.040  0.00  0.00    +0.240 N 
ATOM      4  C   UNK A   0       6.202   4.697  -2.305  0.00  0.00    +0.100 C 
ATOM      5  C   UNK A   0       4.475   4.034  -2.967  0.00  0.00    +0.096 C 
ATOM      6  C   UNK A   0       3.876   2.553  -1.960  0.00  0.00    -0.016 A 
ATOM      7  C   UNK A   0       3.432   0.900  -2.594  0.00  0.00    +0.087 A 
ATOM      8  N   UNK A   0       3.937  -0.413  -1.304  0.00  0.00    -0.360 N 
ATOM      9  C   UNK A   0       4.812   0.421   0.148  0.00  0.00    +0.047 A 
ATOM     10  C   UNK A   0       5.808  -0.021   1.025  0.00  0.00    +0.026 A 
ATOM     11  C   UNK A   0       6.708   0.950   1.594  0.00  0.00    +0.003 A 
ATOM     12  C   UNK A   0       6.850   2.352   1.281  0.00  0.00    +0.009 A 
ATOM     13  C   UNK A   0       6.025   3.005   0.361  0.00  0.00    -0.007 A 
ATOM     14  C   UNK A   0       4.794   2.198  -0.141  0.00  0.00    +0.011 A 
ATOM     15  C   UNK A   0       6.501   4.376  -0.559  0.00  0.00    +0.005 C 
ATOM     16  C   UNK A   0       5.408   3.991  -1.079  0.00  0.00    +0.000 C 
ATOM     17  C   UNK A   0       8.689   4.685  -2.961  0.00  0.00    +0.191 C 
ATOM     18  H   UNK A   0       7.133   3.858  -4.030  0.00  0.00    +0.204 HD
ATOM     19  H   UNK A   0       4.449  -1.187  -1.695  0.00  0.00    +0.165 HD
ENDROOT
BRANCH   1  21
ATOM     20  N   ALA A   1       3.302   1.239  -0.722  0.00  0.00    -0.310 N 
ATOM     21  C   UNK A   0       5.113   1.053  -1.657  0.00  0.00    +0.225 C 
ATOM     22  O   UNK A   0       5.778   0.063  -2.114  0.00  0.00    -0.275 OA
ATOM     23  H   ALA A   1       2.929   2.153  -0.436  0.00  0.00    +0.149 HD
BRANCH  20  25
ATOM     24  CB  ALA A   1       1.066  -0.204  -1.260  0.00  0.00    +0.030 C 
ATOM     25  CA  ALA A   1       1.996   0.355  -0.169  0.00  0.00    +0.095 C 
BRANCH  25  26
ATOM     26  C   ALA A   1       2.239  -0.627   1.003  0.00  0.00    +0.177 C 
BRANCH  26  27
ATOM     27  O   ALA A   1       0.993  -1.034   1.566  0.00  0.00    -0.393 OA
ATOM     28  H   ALA A   1       1.193  -1.629   2.310  0.00  0.00    +0.209 HD
ENDBRANCH  26  27
ENDBRANCH  25  26
ENDBRANCH  20  25
ENDBRANCH   1  21
TORSDOF 4
