REMARK  Name = 
REMARK  6 active torsions:
REMARK  status: ('A' for Active; 'I' for Inactive)
REMARK    1  A    between atoms: C_1  and  C_2
REMARK    2  A    between atoms: C_2  and  C_3
REMARK    3  A    between atoms: C_20  and  C_22
REMARK    4  A    between atoms: C_22  and  O_24
REMARK    5  A    between atoms: O_24  and  C_25
REMARK    6  A    between atoms: C_25  and  C_26
REMARK                            x       y       z     vdW  Elec       q    Type
REMARK                         _______ _______ _______ _____ _____    ______ ____
ROOT
ATOM      1  C   UNL     1       3.074   0.345  -1.575  0.00  0.00    +0.040 C 
ATOM      2  C   UNL     1       4.333   1.256  -1.597  0.00  0.00    +0.022 C 
ATOM      3  C   UNL     1       5.657   0.511  -1.320  0.00  0.00    +0.052 C 
ATOM      4  C   UNL     1       5.522  -0.833  -0.606  0.00  0.00    +0.132 C 
ATOM      5  N   UNL     1       4.601  -1.747  -1.367  0.00  0.00    +0.243 N 
ATOM      6  C   UNL     1       3.539  -1.018  -2.155  0.00  0.00    +0.123 C 
ATOM      7  C   UNL     1       2.409  -1.887  -2.494  0.00  0.00    +0.077 A 
ATOM      8  C   UNL     1       2.267  -3.220  -2.242  0.00  0.00    -0.008 A 
ATOM      9  C   UNL     1       3.293  -3.949  -1.449  0.00  0.00    +0.088 C 
ATOM     10  C   UNL     1       4.084  -2.948  -0.557  0.00  0.00    +0.136 C 
ATOM     11  C   UNL     1       1.065  -3.605  -2.884  0.00  0.00    +0.004 A 
ATOM     12  C   UNL     1       0.411  -4.844  -3.043  0.00  0.00    +0.010 A 
ATOM     13  C   UNL     1      -0.786  -4.908  -3.759  0.00  0.00    +0.001 A 
ATOM     14  C   UNL     1      -1.340  -3.759  -4.310  0.00  0.00    +0.002 A 
ATOM     15  C   UNL     1      -0.722  -2.514  -4.160  0.00  0.00    +0.027 A 
ATOM     16  C   UNL     1       0.485  -2.442  -3.443  0.00  0.00    +0.055 A 
ATOM     17  N   UNL     1       1.286  -1.357  -3.087  0.00  0.00    -0.302 N 
ATOM     18  C   UNL     1       1.140   0.039  -3.197  0.00  0.00    +0.129 C 
ATOM     19  C   UNL     1       1.968   0.880  -2.514  0.00  0.00    +0.019 C 
ATOM     20  H   UNL     1       5.182  -2.180  -2.097  0.00  0.00    +0.204 HD
ENDROOT
BRANCH   1  22
ATOM     21  C   UNL     1       1.227  -0.433   0.175  0.00  0.00    +0.005 C 
ATOM     22  C   UNL     1       2.500   0.356  -0.118  0.00  0.00    +0.013 C 
ENDBRANCH   1  22
BRANCH  18  23
ATOM     23  C   UNL     1       0.026   0.683  -3.922  0.00  0.00    +0.356 C 
ATOM     24  O   UNL     1      -1.133   0.662  -3.549  0.00  0.00    -0.243 OA
BRANCH  23  25
ATOM     25  O   UNL     1       0.528   1.300  -5.020  0.00  0.00    -0.460 OA
BRANCH  25  26
ATOM     26  C   UNL     1      -0.431   1.998  -5.830  0.00  0.00    +0.229 C 
ATOM     27  C   UNL     1      -0.606   3.416  -5.321  0.00  0.00    +0.048 C 
ENDBRANCH  25  26
ENDBRANCH  23  25
ENDBRANCH  18  23
TORSDOF 4
