REMARK  Name = 
REMARK  2 active torsions:
REMARK  status: ('A' for Active; 'I' for Inactive)
REMARK    1  A    between atoms: C_1  and  C_2
REMARK    2  A    between atoms: N_12  and  C_16
REMARK                            x       y       z     vdW  Elec       q    Type
REMARK                         _______ _______ _______ _____ _____    ______ ____
ROOT
ATOM      1  C   UNL     1       0.903   0.179   0.065  0.00  0.00    +0.046 C 
ATOM      2  C   UNL     1       2.392  -0.016   0.064  0.00  0.00    -0.023 A 
ATOM      3  C   UNL     1       3.221   1.134   0.064  0.00  0.00    +0.033 A 
ATOM      4  C   UNL     1       4.607   1.096   0.063  0.00  0.00    +0.073 A 
ATOM      5  C   UNL     1       5.238  -0.158   0.064  0.00  0.00    +0.028 A 
ATOM      6  C   UNL     1       6.642  -0.217   0.063  0.00  0.00    +0.013 A 
ATOM      7  C   UNL     1       7.368   0.965   0.063  0.00  0.00    +0.020 A 
ATOM      8  C   UNL     1       6.664   2.157   0.062  0.00  0.00    +0.111 A 
ATOM      9  N   UNL     1       5.312   2.243   0.063  0.00  0.00    -0.255 NA
ATOM     10  C   UNL     1       4.459  -1.342   0.064  0.00  0.00    +0.100 A 
ATOM     11  C   UNL     1       3.061  -1.259   0.065  0.00  0.00    +0.073 A 
ATOM     12  N   UNL     1       2.666  -2.585   0.065  0.00  0.00    -0.315 N 
ATOM     13  C   UNL     1       3.797  -3.373   0.065  0.00  0.00    +0.194 A 
ATOM     14  N   UNL     1       4.883  -2.651   0.065  0.00  0.00    -0.214 NA
ATOM     15  N   UNL     1       3.759  -4.710   0.066  0.00  0.00    -0.329 N 
ATOM     16  C   UNL     1       1.327  -3.118   0.065  0.00  0.00    +0.152 C 
ATOM     17  H   UNL     1       2.924  -5.279   0.067  0.00  0.00    +0.145 HD
ATOM     18  H   UNL     1       4.641  -5.212   0.066  0.00  0.00    +0.145 HD
ENDROOT
TORSDOF 0
