REMARK  Name = 
REMARK  1 active torsions:
REMARK  status: ('A' for Active; 'I' for Inactive)
REMARK    1  A    between atoms: C_12  and  N_15
REMARK                            x       y       z     vdW  Elec       q    Type
REMARK                         _______ _______ _______ _____ _____    ______ ____
ROOT
ATOM      1  C   UNL     1      -3.710  -0.644   0.369  0.00  0.00    +0.005 C 
ATOM      2  C   UNL     1      -3.640   0.681  -0.373  0.00  0.00    +0.006 C 
ATOM      3  C   UNL     1      -2.385   1.436   0.046  0.00  0.00    +0.056 C 
ATOM      4  C   UNL     1      -1.136   0.595  -0.008  0.00  0.00    +0.047 A 
ATOM      5  N   UNL     1       0.021   1.295  -0.015  0.00  0.00    -0.251 NA
ATOM      6  C   UNL     1       1.181   0.629  -0.013  0.00  0.00    +0.073 A 
ATOM      7  C   UNL     1       2.351   1.377   0.006  0.00  0.00    +0.028 A 
ATOM      8  C   UNL     1       3.612   0.779   0.016  0.00  0.00    +0.002 A 
ATOM      9  C   UNL     1       3.711  -0.602   0.009  0.00  0.00    +0.001 A 
ATOM     10  C   UNL     1       2.549  -1.374  -0.011  0.00  0.00    +0.012 A 
ATOM     11  C   UNL     1       1.260  -0.779  -0.027  0.00  0.00    +0.021 A 
ATOM     12  C   UNL     1       0.036  -1.505  -0.064  0.00  0.00    +0.039 A 
ATOM     13  C   UNL     1      -1.185  -0.802   0.004  0.00  0.00    -0.005 A 
ATOM     14  C   UNL     1      -2.513  -1.524   0.010  0.00  0.00    +0.039 C 
ENDROOT
BRANCH  12  15
ATOM     15  N   UNL     1       0.030  -2.907  -0.042  0.00  0.00    -0.357 N 
ATOM     16  H   UNL     1       0.877  -3.407  -0.270  0.00  0.00    +0.142 HD
ATOM     17  H   UNL     1      -0.831  -3.401  -0.230  0.00  0.00    +0.142 HD
ENDBRANCH  12  15
TORSDOF 1
