REMARK  Name = 
REMARK  2 active torsions:
REMARK  status: ('A' for Active; 'I' for Inactive)
REMARK    1  A    between atoms: C_4  and  C_7
REMARK    2  A    between atoms: C_7  and  N_8
REMARK                            x       y       z     vdW  Elec       q    Type
REMARK                         _______ _______ _______ _____ _____    ______ ____
ROOT
ATOM      1  N   UNL     1      -3.637  -0.658  -0.072  0.00  0.00    -0.323 N 
ATOM      2  C   UNL     1      -4.986  -0.747  -0.305  0.00  0.00    +0.148 A 
ATOM      3  N   UNL     1      -5.582   0.005  -1.255  0.00  0.00    -0.219 NA
ATOM      4  C   UNL     1      -6.913  -0.117  -1.449  0.00  0.00    +0.225 A 
ATOM      5  N   UNL     1      -7.772  -0.916  -0.806  0.00  0.00    -0.214 NA
ATOM      6  C   UNL     1      -7.169  -1.661   0.135  0.00  0.00    +0.183 A 
ATOM      7  C   UNL     1      -5.813  -1.600   0.404  0.00  0.00    +0.125 A 
ATOM      8  N   UNL     1      -5.624  -2.507   1.410  0.00  0.00    -0.340 N 
ATOM      9  C   UNL     1      -6.839  -3.065   1.701  0.00  0.00    +0.199 A 
ATOM     10  N   UNL     1      -7.794  -2.572   0.946  0.00  0.00    -0.216 NA
ATOM     11  H   UNL     1      -3.188  -1.186   0.657  0.00  0.00    +0.148 HD
ATOM     12  H   UNL     1      -4.746  -2.728   1.855  0.00  0.00    +0.167 HD
ENDROOT
BRANCH   1  13
ATOM     13  C   UNL     1      -2.830   0.234  -0.874  0.00  0.00    +0.138 C 
BRANCH  13  17
ATOM     14  C   UNL     1       1.292  -0.230   0.319  0.00  0.00    +0.000 A 
ATOM     15  C   UNL     1       0.559   0.870   0.763  0.00  0.00    +0.000 A 
ATOM     16  C   UNL     1      -0.773   1.025   0.375  0.00  0.00    +0.005 A 
ATOM     17  C   UNL     1      -1.381   0.085  -0.468  0.00  0.00    -0.030 A 
ATOM     18  C   UNL     1      -0.636  -1.022  -0.902  0.00  0.00    +0.005 A 
ATOM     19  C   UNL     1       0.695  -1.177  -0.511  0.00  0.00    +0.000 A 
ENDBRANCH  13  17
ENDBRANCH   1  13
TORSDOF 2
