REMARK  Name = 
REMARK  1 active torsions:
REMARK  status: ('A' for Active; 'I' for Inactive)
REMARK    1  A    between atoms: N_6  and  C_7
REMARK                            x       y       z     vdW  Elec       q    Type
REMARK                         _______ _______ _______ _____ _____    ______ ____
ROOT
ATOM      1  C   UNL     1       1.876   2.871   0.257  0.00  0.00    +0.108 A 
ATOM      2  C   UNL     1       2.211   3.971   1.071  0.00  0.00    +0.082 A 
ATOM      3  C   UNL     1       3.441   4.636   0.958  0.00  0.00    +0.106 A 
ATOM      4  N   UNL     1       3.776   5.677   1.758  0.00  0.00    -0.251 NA
ATOM      5  C   UNL     1       4.988   6.245   1.567  0.00  0.00    +0.131 A 
ATOM      6  C   UNL     1       5.858   5.793   0.602  0.00  0.00    +0.131 A 
ATOM      7  N   UNL     1       5.550   4.757  -0.208  0.00  0.00    -0.252 NA
ATOM      8  C   UNL     1       4.349   4.185  -0.029  0.00  0.00    +0.090 A 
ATOM      9  C   UNL     1       3.998   3.125  -0.853  0.00  0.00    +0.033 A 
ATOM     10  C   UNL     1       2.771   2.470  -0.727  0.00  0.00    +0.043 A 
ATOM     11 BR   UNL     1       0.945   4.549   2.386  0.00  0.00    -0.045 Br
ENDROOT
BRANCH   1  17
ATOM     12  C   UNL     1       0.350  -1.229  -0.492  0.00  0.00    +0.221 C 
ATOM     13  C   UNL     1      -1.117  -0.808  -0.322  0.00  0.00    +0.230 C 
ATOM     14  N   UNL     1      -1.052   0.610   0.041  0.00  0.00    -0.279 N 
ATOM     15  C   UNL     1       0.255   1.005   0.079  0.00  0.00    +0.334 C 
ATOM     16  N   UNL     1       1.118  -0.013  -0.207  0.00  0.00    -0.238 N 
ATOM     17  N   UNL     1       0.596   2.255   0.419  0.00  0.00    -0.208 N 
ATOM     18  H   UNL     1      -1.834   1.232   0.199  0.00  0.00    +0.258 HD
ATOM     19  H   UNL     1       2.114   0.040  -0.044  0.00  0.00    +0.244 HD
ATOM     20  H   UNL     1      -0.100   2.797   0.925  0.00  0.00    +0.251 HD
ENDBRANCH   1  17
TORSDOF 1
