REMARK  Name = 
REMARK  2 active torsions:
REMARK  status: ('A' for Active; 'I' for Inactive)
REMARK    1  A    between atoms: C_1  and  C_2
REMARK    2  A    between atoms: N_14  and  C_15
REMARK                            x       y       z     vdW  Elec       q    Type
REMARK                         _______ _______ _______ _____ _____    ______ ____
ROOT
ATOM      1  C   UNL     1       1.153   0.118   0.054  0.00  0.00    +0.067 C 
ATOM      2  C   UNL     1       2.646   0.042   0.054  0.00  0.00    +0.057 A 
ATOM      3  C   UNL     1       3.313  -1.177   0.053  0.00  0.00    +0.134 A 
ATOM      4  N   UNL     1       4.665  -1.288   0.053  0.00  0.00    -0.252 NA
ATOM      5  C   UNL     1       5.359  -0.134   0.054  0.00  0.00    +0.091 A 
ATOM      6  C   UNL     1       6.749  -0.153   0.053  0.00  0.00    +0.032 A 
ATOM      7  C   UNL     1       7.520   1.017   0.054  0.00  0.00    +0.030 A 
ATOM      8  C   UNL     1       6.829   2.232   0.054  0.00  0.00    +0.072 A 
ATOM      9  C   UNL     1       5.437   2.307   0.054  0.00  0.00    +0.118 A 
ATOM     10  C   UNL     1       4.684   1.108   0.054  0.00  0.00    +0.117 A 
ATOM     11  N   UNL     1       3.326   1.210   0.054  0.00  0.00    -0.247 NA
ATOM     12  N   UNL     1       5.036   3.631   0.055  0.00  0.00    -0.212 NA
ATOM     13  C   UNL     1       6.131   4.346   0.055  0.00  0.00    +0.194 A 
ATOM     14  N   UNL     1       7.247   3.547   0.055  0.00  0.00    -0.315 N 
ATOM     15  C   UNL     1       8.628   3.958   0.054  0.00  0.00    +0.152 C 
ATOM     16  N   UNL     1       6.172   5.681   0.056  0.00  0.00    -0.329 N 
ATOM     17  H   UNL     1       5.286   6.178   0.056  0.00  0.00    +0.145 HD
ATOM     18  H   UNL     1       7.000   6.258   0.056  0.00  0.00    +0.145 HD
ENDROOT
TORSDOF 0
