REMARK  Name = 
REMARK  0 active torsions:
REMARK  status: ('A' for Active; 'I' for Inactive)
REMARK                            x       y       z     vdW  Elec       q    Type
REMARK                         _______ _______ _______ _____ _____    ______ ____
ROOT
ATOM      1  C   UNL     1      -2.454   1.045  -0.034  0.00  0.00    +0.001 A 
ATOM      2  C   UNL     1      -2.752  -0.310   0.014  0.00  0.00    +0.002 A 
ATOM      3  C   UNL     1      -1.715  -1.249   0.034  0.00  0.00    +0.028 A 
ATOM      4  C   UNL     1      -0.378  -0.869   0.011  0.00  0.00    +0.076 A 
ATOM      5  C   UNL     1      -0.073   0.498  -0.032  0.00  0.00    +0.040 A 
ATOM      6  C   UNL     1      -1.122   1.451  -0.059  0.00  0.00    +0.013 A 
ATOM      7  C   UNL     1       1.295   0.803  -0.051  0.00  0.00    +0.127 A 
ATOM      8  N   UNL     1       2.254  -0.133  -0.058  0.00  0.00    -0.221 NA
ATOM      9  C   UNL     1       1.834  -1.402  -0.014  0.00  0.00    +0.223 A 
ATOM     10  N   UNL     1       0.563  -1.819   0.027  0.00  0.00    -0.235 NA
ATOM     11  N   UNL     1       1.762   2.108  -0.114  0.00  0.00    -0.343 N 
ATOM     12  H   UNL     1       1.314   2.785   0.485  0.00  0.00    +0.144 HD
ATOM     13  H   UNL     1       2.774   2.141  -0.147  0.00  0.00    +0.144 HD
ENDROOT
TORSDOF 0
