REMARK  Name = 
REMARK  3 active torsions:
REMARK  status: ('A' for Active; 'I' for Inactive)
REMARK    1  A    between atoms: C_3  and  N_8
REMARK    2  A    between atoms: C_15  and  N_20
REMARK    3  A    between atoms: C_16  and  N_19
REMARK                            x       y       z     vdW  Elec       q    Type
REMARK                         _______ _______ _______ _____ _____    ______ ____
ROOT
ATOM      1  N   UNL     1       2.690  -2.366   0.416  0.00  0.00    -0.299 N 
ATOM      2  C   UNL     1       2.159  -3.669   0.289  0.00  0.00    +0.134 A 
ATOM      3  N   UNL     1       1.241  -3.901  -0.668  0.00  0.00    -0.220 NA
ATOM      4  C   UNL     1       0.784  -5.151  -0.774  0.00  0.00    +0.223 A 
ATOM      5  N   UNL     1       1.140  -6.189  -0.011  0.00  0.00    -0.235 NA
ATOM      6  C   UNL     1       2.030  -5.947   0.956  0.00  0.00    +0.078 A 
ATOM      7  C   UNL     1       2.390  -6.989   1.801  0.00  0.00    +0.053 A 
ATOM      8  C   UNL     1       3.273  -6.813   2.872  0.00  0.00    +0.048 A 
ATOM      9  C   UNL     1       3.924  -5.578   3.024  0.00  0.00    +0.046 A 
ATOM     10  C   UNL     1       3.533  -4.510   2.217  0.00  0.00    +0.038 A 
ATOM     11  C   UNL     1       2.596  -4.683   1.165  0.00  0.00    +0.042 A 
ATOM     12  H   UNL     1       3.696  -2.367   0.503  0.00  0.00    +0.154 HD
ENDROOT
BRANCH   1  15
ATOM     13  C   UNL     1       2.435   1.276  -0.253  0.00  0.00    +0.003 A 
ATOM     14  C   UNL     1       2.956   0.007   0.013  0.00  0.00    +0.023 A 
ATOM     15  C   UNL     1       2.122  -1.119   0.102  0.00  0.00    +0.033 A 
ATOM     16  C   UNL     1       0.745  -0.933  -0.065  0.00  0.00    +0.038 A 
ATOM     17  C   UNL     1       0.224   0.336  -0.329  0.00  0.00    +0.020 A 
ATOM     18  C   UNL     1       1.063   1.442  -0.426  0.00  0.00    +0.015 A 
ATOM     19 BR   UNL     1      -1.642   0.557  -0.543  0.00  0.00    -0.050 Br
ENDBRANCH   1  15
BRANCH   9  20
ATOM     20  N   UNL     1       4.835  -5.373   4.062  0.00  0.00    -0.357 N 
ATOM     21  H   UNL     1       5.314  -6.203   4.391  0.00  0.00    +0.142 HD
ATOM     22  H   UNL     1       5.379  -4.521   4.065  0.00  0.00    +0.142 HD
ENDBRANCH   9  20
BRANCH   8  23
ATOM     23  N   UNL     1       3.601  -7.898   3.691  0.00  0.00    -0.356 N 
ATOM     24  H   UNL     1       3.018  -8.724   3.634  0.00  0.00    +0.142 HD
ATOM     25  H   UNL     1       3.930  -7.659   4.619  0.00  0.00    +0.142 HD
ENDBRANCH   8  23
TORSDOF 3
