REMARK  Name = 
REMARK  2 active torsions:
REMARK  status: ('A' for Active; 'I' for Inactive)
REMARK    1  A    between atoms: C_1  and  N_2
REMARK    2  A    between atoms: C_7  and  C_9
REMARK                            x       y       z     vdW  Elec       q    Type
REMARK                         _______ _______ _______ _____ _____    ______ ____
ROOT
ATOM      1  C   UNL     1       1.032  -0.017   0.130  0.00  0.00    +0.152 C 
ATOM      2  N   UNL     1       2.470   0.045   0.065  0.00  0.00    -0.314 N 
ATOM      3  C   UNL     1       3.238   1.183   0.061  0.00  0.00    +0.089 A 
ATOM      4  C   UNL     1       4.541   0.704  -0.026  0.00  0.00    +0.180 A 
ATOM      5  N   UNL     1       5.627   1.505  -0.065  0.00  0.00    -0.234 NA
ATOM      6  C   UNL     1       5.345   2.828  -0.012  0.00  0.00    +0.121 A 
ATOM      7  C   UNL     1       4.074   3.412   0.076  0.00  0.00    +0.002 A 
ATOM      8  C   UNL     1       2.967   2.553   0.117  0.00  0.00    +0.039 A 
ATOM      9  N   UNL     1       4.572  -0.661  -0.066  0.00  0.00    -0.195 NA
ATOM     10  C   UNL     1       3.319  -1.036  -0.010  0.00  0.00    +0.195 A 
ATOM     11  N   UNL     1       2.885  -2.301  -0.021  0.00  0.00    -0.329 N 
ATOM     12  H   UNL     1       3.578  -3.041  -0.078  0.00  0.00    +0.145 HD
ATOM     13  H   UNL     1       1.921  -2.598   0.023  0.00  0.00    +0.145 HD
ENDROOT
BRANCH   7  14
ATOM     14  C   UNL     1       3.905   4.870   0.120  0.00  0.00    -0.016 A 
ATOM     15  C   UNL     1       3.251   5.488   1.199  0.00  0.00    +0.008 A 
ATOM     16  C   UNL     1       3.091   6.876   1.243  0.00  0.00    +0.001 A 
ATOM     17  C   UNL     1       3.580   7.667   0.206  0.00  0.00    +0.000 A 
ATOM     18  C   UNL     1       4.230   7.073  -0.873  0.00  0.00    +0.001 A 
ATOM     19  C   UNL     1       4.392   5.686  -0.914  0.00  0.00    +0.008 A 
ENDBRANCH   7  14
TORSDOF 1
