REMARK  Name = 
REMARK  1 active torsions:
REMARK  status: ('A' for Active; 'I' for Inactive)
REMARK    1  A    between atoms: C_1  and  N_2
REMARK                            x       y       z     vdW  Elec       q    Type
REMARK                         _______ _______ _______ _____ _____    ______ ____
ROOT
ATOM      1  C   UNL     1       0.958  -0.020   0.041  0.00  0.00    +0.152 C 
ATOM      2  N   UNL     1       2.395   0.094   0.041  0.00  0.00    -0.315 N 
ATOM      3  C   UNL     1       3.121   1.264   0.040  0.00  0.00    +0.070 A 
ATOM      4  C   UNL     1       4.448   0.840   0.040  0.00  0.00    +0.100 A 
ATOM      5  C   UNL     1       5.482   1.809   0.039  0.00  0.00    +0.028 A 
ATOM      6  C   UNL     1       5.159   3.182   0.039  0.00  0.00    +0.073 A 
ATOM      7  C   UNL     1       3.819   3.549   0.039  0.00  0.00    +0.030 A 
ATOM      8  C   UNL     1       2.769   2.617   0.040  0.00  0.00    +0.030 A 
ATOM      9  N   UNL     1       6.113   4.130   0.038  0.00  0.00    -0.255 NA
ATOM     10  C   UNL     1       7.406   3.728   0.037  0.00  0.00    +0.111 A 
ATOM     11  C   UNL     1       7.813   2.405   0.038  0.00  0.00    +0.020 A 
ATOM     12  C   UNL     1       6.832   1.424   0.038  0.00  0.00    +0.013 A 
ATOM     13  N   UNL     1       4.520  -0.536   0.040  0.00  0.00    -0.214 NA
ATOM     14  C   UNL     1       3.281  -0.957   0.041  0.00  0.00    +0.194 A 
ATOM     15  N   UNL     1       2.894  -2.236   0.042  0.00  0.00    -0.329 N 
ATOM     16  H   UNL     1       3.611  -2.953   0.042  0.00  0.00    +0.145 HD
ATOM     17  H   UNL     1       1.938  -2.563   0.042  0.00  0.00    +0.145 HD
ENDROOT
TORSDOF 0
