REMARK  Name = 
REMARK  2 active torsions:
REMARK  status: ('A' for Active; 'I' for Inactive)
REMARK    1  A    between atoms: C_4  and  C_7
REMARK    2  A    between atoms: C_10  and  N_19
REMARK                            x       y       z     vdW  Elec       q    Type
REMARK                         _______ _______ _______ _____ _____    ______ ____
ROOT
ATOM      1  C   UNL     1      -2.859   0.432  -0.236  0.00  0.00    +0.111 A 
ATOM      2  N   UNL     1      -3.248   1.209  -1.276  0.00  0.00    -0.237 NA
ATOM      3  C   UNL     1      -4.588   1.422  -1.411  0.00  0.00    +0.148 A 
ATOM      4  C   UNL     1      -5.140   2.172  -2.443  0.00  0.00    +0.149 A 
ATOM      5  N   UNL     1      -6.457   2.384  -2.591  0.00  0.00    -0.198 NA
ATOM      6  C   UNL     1      -7.255   1.821  -1.690  0.00  0.00    +0.216 A 
ATOM      7  N   UNL     1      -6.842   1.081  -0.667  0.00  0.00    -0.193 NA
ATOM      8  C   UNL     1      -5.534   0.886  -0.533  0.00  0.00    +0.187 A 
ATOM      9  N   UNL     1      -5.128   0.136   0.498  0.00  0.00    -0.209 NA
ATOM     10  C   UNL     1      -3.806  -0.083   0.664  0.00  0.00    +0.145 A 
ATOM     11  N   UNL     1      -3.482  -0.879   1.750  0.00  0.00    -0.341 N 
ATOM     12  N   UNL     1      -8.597   2.022  -1.823  0.00  0.00    -0.327 N 
ATOM     13  H   UNL     1      -4.295  -1.148   2.292  0.00  0.00    +0.144 HD
ATOM     14  H   UNL     1      -2.642  -0.646   2.264  0.00  0.00    +0.144 HD
ATOM     15  H   UNL     1      -8.920   2.595  -2.582  0.00  0.00    +0.145 HD
ATOM     16  H   UNL     1      -9.206   1.620  -1.132  0.00  0.00    +0.145 HD
ENDROOT
BRANCH   1  20
ATOM     17  C   UNL     1       1.379  -0.196   0.060  0.00  0.00    +0.000 A 
ATOM     18  C   UNL     1       0.869   1.089  -0.101  0.00  0.00    +0.001 A 
ATOM     19  C   UNL     1      -0.511   1.286  -0.204  0.00  0.00    +0.010 A 
ATOM     20  C   UNL     1      -1.408   0.205  -0.137  0.00  0.00    +0.004 A 
ATOM     21  C   UNL     1      -0.868  -1.085   0.010  0.00  0.00    +0.010 A 
ATOM     22  C   UNL     1       0.512  -1.284   0.110  0.00  0.00    +0.001 A 
ENDBRANCH   1  20
BRANCH   4  23
ATOM     23  N   UNL     1      -4.319   2.812  -3.366  0.00  0.00    -0.341 N 
ATOM     24  H   UNL     1      -3.409   2.396  -3.527  0.00  0.00    +0.144 HD
ATOM     25  H   UNL     1      -4.797   3.290  -4.116  0.00  0.00    +0.144 HD
ENDBRANCH   4  23
TORSDOF 2
