REMARK  Name = 
REMARK  2 active torsions:
REMARK  status: ('A' for Active; 'I' for Inactive)
REMARK    1  A    between atoms: C_1  and  C_2
REMARK    2  A    between atoms: C_7  and  C_8
REMARK                            x       y       z     vdW  Elec       q    Type
REMARK                         _______ _______ _______ _____ _____    ______ ____
ROOT
ATOM      1  C   UNL     1       2.890  -1.451  -0.017  0.00  0.00    +0.044 C 
ATOM      2  C   UNL     1       1.584  -0.698  -0.005  0.00  0.00    -0.045 A 
ATOM      3  C   UNL     1       0.382  -1.435  -0.006  0.00  0.00    +0.031 A 
ATOM      4  C   UNL     1      -0.813  -0.715   0.003  0.00  0.00    +0.066 A 
ATOM      5  C   UNL     1      -0.867   0.672   0.012  0.00  0.00    +0.089 A 
ATOM      6  C   UNL     1       0.329   1.401   0.012  0.00  0.00    +0.033 A 
ATOM      7  C   UNL     1       1.561   0.715   0.003  0.00  0.00    -0.045 A 
ATOM      8  C   UNL     1       2.835   1.518   0.006  0.00  0.00    +0.044 C 
ATOM      9  N   UNL     1      -2.169   1.114   0.019  0.00  0.00    -0.236 NA
ATOM     10  C   UNL     1      -2.901   0.024   0.015  0.00  0.00    +0.197 A 
ATOM     11  N   UNL     1      -2.129  -1.103   0.005  0.00  0.00    -0.344 N 
ATOM     12  H   UNL     1      -2.467  -2.054   0.001  0.00  0.00    +0.167 HD
ENDROOT
TORSDOF 0
