REMARK  Name = 
REMARK  5 active torsions:
REMARK  status: ('A' for Active; 'I' for Inactive)
REMARK    1  A    between atoms: C_1  and  N_2
REMARK    2  A    between atoms: N_2  and  C_3
REMARK    3  A    between atoms: N_2  and  C_4
REMARK    4  A    between atoms: C_4  and  C_5
REMARK    5  A    between atoms: C_5  and  C_6
REMARK                            x       y       z     vdW  Elec       q    Type
REMARK                         _______ _______ _______ _____ _____    ______ ____
ROOT
ATOM      1  C   UNL     1       4.996   2.831  -0.287  0.00  0.00    -0.017 A 
ATOM      2  C   UNL     1       4.798   4.042   0.347  0.00  0.00    +0.087 A 
ATOM      3  N   UNL     1       5.524   4.998  -0.314  0.00  0.00    -0.360 N 
ATOM      4  C   UNL     1       6.186   4.436  -1.380  0.00  0.00    +0.047 A 
ATOM      5  C   UNL     1       7.030   5.029  -2.326  0.00  0.00    +0.026 A 
ATOM      6  C   UNL     1       7.586   4.204  -3.306  0.00  0.00    +0.002 A 
ATOM      7  C   UNL     1       7.310   2.840  -3.335  0.00  0.00    +0.001 A 
ATOM      8  C   UNL     1       6.463   2.262  -2.382  0.00  0.00    +0.010 A 
ATOM      9  C   UNL     1       5.885   3.074  -1.384  0.00  0.00    +0.003 A 
ATOM     10  H   UNL     1       5.576   5.977  -0.061  0.00  0.00    +0.165 HD
ENDROOT
BRANCH   1  11
ATOM     11  C   UNL     1       4.391   1.522   0.094  0.00  0.00    +0.088 C 
BRANCH  11  12
ATOM     12  C   UNL     1       3.134   1.233  -0.733  0.00  0.00    +0.135 C 
BRANCH  12  14
ATOM     13  C   UNL     1       1.028  -0.106  -0.793  0.00  0.00    +0.190 C 
ATOM     14  N   UNL     1       2.443  -0.046  -0.281  0.00  0.00    +0.231 N 
ATOM     15  C   UNL     1       3.202  -1.292  -0.648  0.00  0.00    +0.190 C 
ATOM     16  H   UNL     1       2.377  -0.016   0.746  0.00  0.00    +0.203 HD
ENDBRANCH  12  14
ENDBRANCH  11  12
ENDBRANCH   1  11
TORSDOF 3
