REMARK  Name = 
REMARK  7 active torsions:
REMARK  status: ('A' for Active; 'I' for Inactive)
REMARK    1  A    between atoms: C_1  and  C_2
REMARK    2  A    between atoms: C_4  and  C_25
REMARK    3  A    between atoms: C_6  and  C_24
REMARK    4  A    between atoms: C_7  and  N_8
REMARK    5  A    between atoms: N_15  and  C_16
REMARK    6  A    between atoms: C_19  and  C_22
REMARK    7  A    between atoms: C_26  and  C_27
REMARK                            x       y       z     vdW  Elec       q    Type
REMARK                         _______ _______ _______ _____ _____    ______ ____
ROOT
ATOM      1  N   UNL     1       2.653  -1.105  -0.483  0.00  0.00    -0.299 N 
ATOM      2  C   UNL     1       3.921  -0.740  -0.023  0.00  0.00    +0.128 A 
ATOM      3  N   UNL     1       4.930  -0.863  -0.903  0.00  0.00    -0.199 NA
ATOM      4  C   UNL     1       6.153  -0.462  -0.522  0.00  0.00    +0.221 A 
ATOM      5  N   UNL     1       6.425   0.007   0.703  0.00  0.00    -0.223 NA
ATOM      6  C   UNL     1       5.403   0.083   1.571  0.00  0.00    +0.118 A 
ATOM      7  C   UNL     1       4.118  -0.271   1.255  0.00  0.00    +0.063 A 
ATOM      8  N   UNL     1       7.120  -0.521  -1.522  0.00  0.00    -0.284 N 
ATOM      9  H   UNL     1       2.707  -1.462  -1.431  0.00  0.00    +0.154 HD
ATOM     10  H   UNL     1       6.694  -0.881  -2.363  0.00  0.00    +0.155 HD
ENDROOT
BRANCH   1  17
ATOM     11  C   UNL     1       2.133   1.791  -0.820  0.00  0.00    +0.046 C 
ATOM     12  C   UNL     1       1.100   0.800  -0.349  0.00  0.00    -0.028 A 
ATOM     13  C   UNL     1      -0.204   1.270  -0.113  0.00  0.00    +0.013 A 
ATOM     14  C   UNL     1      -1.239   0.403   0.251  0.00  0.00    -0.024 A 
ATOM     15  C   UNL     1      -0.946  -0.951   0.433  0.00  0.00    +0.013 A 
ATOM     16  C   UNL     1       0.354  -1.445   0.222  0.00  0.00    -0.028 A 
ATOM     17  C   UNL     1       1.394  -0.566  -0.150  0.00  0.00    +0.038 A 
ATOM     18  C   UNL     1       0.616  -2.919   0.392  0.00  0.00    +0.046 C 
BRANCH  14  19
ATOM     19  C   UNL     1      -2.590   0.961   0.397  0.00  0.00    +0.019 C 
ATOM     20  C   UNL     1      -3.701   0.310   0.022  0.00  0.00    +0.089 C 
BRANCH  20  21
ATOM     21  C   UNL     1      -5.051   1.009   0.009  0.00  0.00    +0.091 C 
ATOM     22  N   UNL     1      -6.170   1.588  -0.002  0.00  0.00    -0.191 NA
ENDBRANCH  20  21
ENDBRANCH  14  19
ENDBRANCH   1  17
BRANCH   8  23
ATOM     23  C   UNL     1       8.465  -0.147  -1.597  0.00  0.00    +0.034 A 
ATOM     24  C   UNL     1       9.220   0.273  -0.498  0.00  0.00    +0.024 A 
ATOM     25  C   UNL     1      10.556   0.670  -0.641  0.00  0.00    +0.020 A 
ATOM     26  C   UNL     1      11.162   0.660  -1.898  0.00  0.00    +0.052 A 
ATOM     27  C   UNL     1      10.426   0.245  -3.008  0.00  0.00    +0.020 A 
ATOM     28  C   UNL     1       9.093  -0.154  -2.854  0.00  0.00    +0.024 A 
BRANCH  26  29
ATOM     29  C   UNL     1      12.525   1.076  -2.048  0.00  0.00    +0.099 C 
ATOM     30  N   UNL     1      13.628   1.414  -2.174  0.00  0.00    -0.191 NA
ENDBRANCH  26  29
ENDBRANCH   8  23
TORSDOF 5
