REMARK  Name = 
REMARK  0 active torsions:
REMARK  status: ('A' for Active; 'I' for Inactive)
REMARK                            x       y       z     vdW  Elec       q    Type
REMARK                         _______ _______ _______ _____ _____    ______ ____
ROOT
ATOM      1  C   UNL     1       0.369  -1.219   0.694  0.00  0.00    +0.148 C 
ATOM      2  C   UNL     1      -0.756  -1.401  -0.345  0.00  0.00    +0.157 C 
ATOM      3  N   UNL     1      -1.631  -0.217  -0.400  0.00  0.00    -0.305 N 
ATOM      4  C   UNL     1      -0.952   1.065  -0.632  0.00  0.00    +0.157 C 
ATOM      5  C   UNL     1       0.152   1.281   0.428  0.00  0.00    +0.148 C 
ATOM      6  N   UNL     1       1.092   0.094   0.458  0.00  0.00    +0.229 N 
ATOM      7  C   UNL     1      -2.659  -0.189   0.545  0.00  0.00    +0.122 A 
ATOM      8  N   UNL     1      -2.493  -0.886   1.688  0.00  0.00    -0.232 NA
ATOM      9  C   UNL     1      -3.473  -0.874   2.615  0.00  0.00    +0.073 A 
ATOM     10  C   UNL     1      -3.319  -1.604   3.788  0.00  0.00    +0.028 A 
ATOM     11  C   UNL     1      -4.305  -1.622   4.779  0.00  0.00    +0.002 A 
ATOM     12  C   UNL     1      -5.477  -0.896   4.604  0.00  0.00    +0.001 A 
ATOM     13  C   UNL     1      -5.658  -0.155   3.439  0.00  0.00    +0.010 A 
ATOM     14  C   UNL     1      -4.663  -0.141   2.446  0.00  0.00    +0.001 A 
ATOM     15  C   UNL     1      -4.815   0.585   1.264  0.00  0.00    +0.013 A 
ATOM     16  C   UNL     1      -3.806   0.560   0.307  0.00  0.00    +0.044 A 
ATOM     17  H   UNL     1       1.788   0.229   1.202  0.00  0.00    +0.201 HD
ATOM     18  H   UNL     1       1.605   0.041  -0.430  0.00  0.00    +0.201 HD
ENDROOT
TORSDOF 0
