REMARK  Name = 
REMARK  2 active torsions:
REMARK  status: ('A' for Active; 'I' for Inactive)
REMARK    1  A    between atoms: C_1  and  C_2
REMARK    2  A    between atoms: C_9  and  N_12
REMARK                            x       y       z     vdW  Elec       q    Type
REMARK                         _______ _______ _______ _____ _____    ______ ____
ROOT
ATOM      1  C   UNL     1       1.023  -0.030   0.128  0.00  0.00    +0.065 C 
ATOM      2  C   UNL     1       2.520   0.041   0.097  0.00  0.00    +0.039 A 
ATOM      3  N   UNL     1       3.194  -1.133   0.057  0.00  0.00    -0.252 NA
ATOM      4  C   UNL     1       4.539  -1.104   0.018  0.00  0.00    +0.071 A 
ATOM      5  C   UNL     1       5.269   0.100   0.019  0.00  0.00    +0.002 A 
ATOM      6  C   UNL     1       4.550   1.300   0.059  0.00  0.00    +0.012 A 
ATOM      7  C   UNL     1       3.160   1.273   0.098  0.00  0.00    +0.023 A 
ATOM      8  C   UNL     1       6.677   0.077  -0.025  0.00  0.00    +0.032 A 
ATOM      9  C   UNL     1       7.376  -1.130  -0.049  0.00  0.00    +0.025 A 
ATOM     10  C   UNL     1       6.647  -2.315  -0.081  0.00  0.00    +0.025 A 
ATOM     11  C   UNL     1       5.248  -2.294  -0.035  0.00  0.00    +0.030 A 
ENDROOT
BRANCH   9  12
ATOM     12  N   UNL     1       8.755  -1.146  -0.163  0.00  0.00    -0.358 N 
ATOM     13  H   UNL     1       9.280  -0.295  -0.007  0.00  0.00    +0.142 HD
ATOM     14  H   UNL     1       9.252  -2.021  -0.055  0.00  0.00    +0.142 HD
ENDBRANCH   9  12
TORSDOF 1
