REMARK  Name = 
REMARK  2 active torsions:
REMARK  status: ('A' for Active; 'I' for Inactive)
REMARK    1  A    between atoms: N_15  and  C_16
REMARK    2  A    between atoms: C_16  and  C_17
REMARK                            x       y       z     vdW  Elec       q    Type
REMARK                         _______ _______ _______ _____ _____    ______ ____
ROOT
ATOM      1  C   UNL     1       0.666  -1.561   0.981  0.00  0.00    +0.148 C 
ATOM      2  C   UNL     1      -0.865  -1.504   1.106  0.00  0.00    +0.159 C 
ATOM      3  N   UNL     1      -1.333  -0.107   1.224  0.00  0.00    -0.291 N 
ATOM      4  C   UNL     1      -0.866   0.792   0.143  0.00  0.00    +0.159 C 
ATOM      5  C   UNL     1       0.664   0.746   0.009  0.00  0.00    +0.148 C 
ATOM      6  N   UNL     1       1.132  -0.680  -0.153  0.00  0.00    +0.229 N 
ATOM      7  C   UNL     1      -2.655   0.040   1.522  0.00  0.00    +0.200 A 
ATOM      8  N   UNL     1      -3.602   0.300   0.653  0.00  0.00    -0.214 NA
ATOM      9  C   UNL     1      -4.765   0.373   1.377  0.00  0.00    +0.091 A 
ATOM     10  C   UNL     1      -6.074   0.615   0.937  0.00  0.00    +0.030 A 
ATOM     11  C   UNL     1      -7.107   0.650   1.882  0.00  0.00    +0.002 A 
ATOM     12  C   UNL     1      -6.840   0.450   3.237  0.00  0.00    +0.002 A 
ATOM     13  C   UNL     1      -5.540   0.209   3.694  0.00  0.00    +0.028 A 
ATOM     14  C   UNL     1      -4.522   0.175   2.732  0.00  0.00    +0.070 A 
ATOM     15  N   UNL     1      -3.158  -0.027   2.804  0.00  0.00    -0.307 N 
ATOM     16  H   UNL     1       2.157  -0.705  -0.218  0.00  0.00    +0.201 HD
ATOM     17  H   UNL     1       0.767  -1.053  -1.040  0.00  0.00    +0.201 HD
ENDROOT
BRANCH  15  18
ATOM     18  C   UNL     1      -2.392  -0.116   4.039  0.00  0.00    +0.160 C 
BRANCH  18  19
ATOM     19  C   UNL     1      -2.080  -1.529   4.480  0.00  0.00    -0.028 A 
ATOM     20  C   UNL     1      -2.950  -2.608   4.254  0.00  0.00    +0.005 A 
ATOM     21  C   UNL     1      -2.635  -3.888   4.717  0.00  0.00    +0.000 A 
ATOM     22  C   UNL     1      -1.458  -4.105   5.429  0.00  0.00    +0.000 A 
ATOM     23  C   UNL     1      -0.597  -3.042   5.684  0.00  0.00    +0.000 A 
ATOM     24  C   UNL     1      -0.906  -1.763   5.218  0.00  0.00    +0.005 A 
ENDBRANCH  18  19
ENDBRANCH  15  18
TORSDOF 2
