REMARK  Name = 
REMARK  11 active torsions:
REMARK  status: ('A' for Active; 'I' for Inactive)
REMARK    1  A    between atoms: C_1  and  C_2
REMARK    2  A    between atoms: C_2  and  N_3
REMARK    3  A    between atoms: N_6  and  C_7
REMARK    4  A    between atoms: C_7  and  C_8
REMARK    5  A    between atoms: C_8  and  C_9
REMARK    6  A    between atoms: C_9  and  N_10
REMARK    7  A    between atoms: N_10  and  C_11
REMARK    8  A    between atoms: N_10  and  C_12
REMARK    9  A    between atoms: C_13  and  C_15
REMARK   10  A    between atoms: N_29  and  C_31
REMARK   11  A    between atoms: C_31  and  C_32
REMARK                            x       y       z     vdW  Elec       q    Type
REMARK                         _______ _______ _______ _____ _____    ______ ____
ROOT
ATOM      1  C   UNL     1       6.247   2.981   4.163  0.00  0.00    +0.122 C 
ATOM      2  C   UNL     1       7.130   3.785   3.186  0.00  0.00    +0.031 C 
ATOM      3  C   UNL     1       8.350   4.460   3.857  0.00  0.00    +0.069 C 
ATOM      4  C   UNL     1       7.919   4.969   5.286  0.00  0.00    +0.077 C 
ATOM      5  C   UNL     1       8.857   6.009   5.978  0.00  0.00    +0.092 C 
ATOM      6  C   UNL     1       9.257   7.063   5.008  0.00  0.00    -0.017 A 
ATOM      7  C   UNL     1       9.710   8.353   5.149  0.00  0.00    +0.087 A 
ATOM      8  N   UNL     1      10.031   8.824   3.890  0.00  0.00    -0.360 N 
ATOM      9  C   UNL     1       9.795   7.848   2.945  0.00  0.00    +0.047 A 
ATOM     10  C   UNL     1      10.000   7.804   1.567  0.00  0.00    +0.026 A 
ATOM     11  C   UNL     1       9.673   6.602   0.920  0.00  0.00    +0.002 A 
ATOM     12  C   UNL     1       9.140   5.506   1.616  0.00  0.00    +0.005 A 
ATOM     13  C   UNL     1       8.905   5.575   2.996  0.00  0.00    -0.030 A 
ATOM     14  C   UNL     1       9.281   6.765   3.631  0.00  0.00    +0.007 A 
ATOM     15  N   UNL     1       7.560   3.753   6.181  0.00  0.00    +0.241 N 
ATOM     16  C   UNL     1       7.056   2.548   5.386  0.00  0.00    +0.144 C 
ATOM     17  H   UNL     1      10.420   9.737   3.690  0.00  0.00    +0.165 HD
ATOM     18  H   UNL     1       6.785   4.074   6.772  0.00  0.00    +0.204 HD
ENDROOT
BRANCH   1  23
ATOM     19  N   UNL     1       4.967   0.004   1.427  0.00  0.00    -0.299 N 
ATOM     20  C   UNL     1       4.034   0.457   2.321  0.00  0.00    +0.309 C 
ATOM     21  O   UNL     1       2.916  -0.048   2.376  0.00  0.00    -0.252 OA
ATOM     22  N   UNL     1       4.428   1.551   3.112  0.00  0.00    -0.225 N 
ATOM     23  C   UNL     1       5.769   1.707   3.465  0.00  0.00    +0.231 C 
ATOM     24  O   UNL     1       6.628   0.849   3.232  0.00  0.00    -0.275 OA
ATOM     25  H   UNL     1       5.945   0.205   1.614  0.00  0.00    +0.150 HD
BRANCH  19  27
ATOM     26  C   UNL     1       3.766  -0.548  -0.657  0.00  0.00    +0.024 C 
ATOM     27  C   UNL     1       4.678  -1.037   0.457  0.00  0.00    +0.102 C 
ENDBRANCH  19  27
BRANCH  22  28
ATOM     28  C   UNL     1       3.380   2.443   3.665  0.00  0.00    +0.123 C 
BRANCH  28  29
ATOM     29  C   UNL     1       1.901   2.115   3.385  0.00  0.00    +0.070 C 
BRANCH  29  30
ATOM     30  C   UNL     1       0.918   3.147   3.927  0.00  0.00    +0.132 C 
BRANCH  30  31
ATOM     31  N   UNL     1      -0.501   2.801   3.508  0.00  0.00    +0.231 N 
ATOM     32  C   UNL     1      -1.037   1.527   4.120  0.00  0.00    +0.190 C 
ATOM     33  C   UNL     1      -1.452   3.946   3.753  0.00  0.00    +0.190 C 
ATOM     34  H   UNL     1      -0.501   2.645   2.489  0.00  0.00    +0.203 HD
ENDBRANCH  30  31
ENDBRANCH  29  30
ENDBRANCH  28  29
ENDBRANCH  22  28
ENDBRANCH   1  23
BRANCH  15  35
ATOM     35  C   UNL     1       8.626   3.288   7.166  0.00  0.00    +0.159 C 
BRANCH  35  36
ATOM     36  C   UNL     1       8.521   3.986   8.485  0.00  0.00    +0.015 C 
ATOM     37  C   UNL     1       9.508   4.680   9.069  0.00  0.00    +0.009 C 
ENDBRANCH  35  36
ENDBRANCH  15  35
TORSDOF 8
