REMARK  Name = 
REMARK  7 active torsions:
REMARK  status: ('A' for Active; 'I' for Inactive)
REMARK    1  A    between atoms: C_1  and  C_2
REMARK    2  A    between atoms: C_2  and  CA_3
REMARK    3  A    between atoms: CA_3  and  C_4
REMARK    4  A    between atoms: CA_3  and  N_6
REMARK    5  A    between atoms: C_4  and  O_5
REMARK    6  A    between atoms: C_7  and  C_9
REMARK    7  A    between atoms: N_11  and  C_25
REMARK                            x       y       z     vdW  Elec       q    Type
REMARK                         _______ _______ _______ _____ _____    ______ ____
ROOT
ATOM      1  C   UNL     1       5.831   1.119   3.075  0.00  0.00    +0.143 C 
ATOM      2  C   UNL     1       6.720   2.193   3.720  0.00  0.00    +0.148 C 
ATOM      3  N   UNL     1       8.186   1.779   3.674  0.00  0.00    +0.240 N 
ATOM      4  C   UNL     1       8.676   1.642   2.216  0.00  0.00    +0.100 C 
ATOM      5  C   UNL     1      10.079   0.929   2.220  0.00  0.00    +0.096 C 
ATOM      6  C   UNL     1      10.457   0.514   0.846  0.00  0.00    -0.016 A 
ATOM      7  C   UNL     1      11.658   0.206   0.254  0.00  0.00    +0.087 A 
ATOM      8  N   UNL     1      11.402  -0.123  -1.063  0.00  0.00    -0.360 N 
ATOM      9  C   UNL     1      10.052  -0.027  -1.322  0.00  0.00    +0.047 A 
ATOM     10  C   UNL     1       9.303  -0.249  -2.479  0.00  0.00    +0.026 A 
ATOM     11  C   UNL     1       7.916  -0.051  -2.385  0.00  0.00    +0.003 A 
ATOM     12  C   UNL     1       7.304   0.344  -1.188  0.00  0.00    +0.009 A 
ATOM     13  C   UNL     1       8.068   0.553  -0.034  0.00  0.00    -0.007 A 
ATOM     14  C   UNL     1       9.454   0.364  -0.137  0.00  0.00    +0.011 A 
ATOM     15  C   UNL     1       7.614   0.962   1.316  0.00  0.00    +0.005 C 
ATOM     16  C   UNL     1       6.356   0.706   1.723  0.00  0.00    +0.000 C 
ATOM     17  C   UNL     1       9.024   2.720   4.495  0.00  0.00    +0.191 C 
ATOM     18  H   UNL     1       8.251   0.844   4.096  0.00  0.00    +0.204 HD
ATOM     19  H   UNL     1      12.100  -0.397  -1.742  0.00  0.00    +0.165 HD
ENDROOT
BRANCH   1  21
ATOM     20  N   UNL     1       3.458   0.788   2.549  0.00  0.00    -0.310 N 
ATOM     21  C   UNL     1       4.411   1.683   2.980  0.00  0.00    +0.225 C 
ATOM     22  O   UNL     1       4.152   2.837   3.307  0.00  0.00    -0.275 OA
ATOM     23  H   UNL     1       3.703  -0.179   2.373  0.00  0.00    +0.149 HD
BRANCH  20  24
ATOM     24  CA  UNL     1       2.046   1.160   2.403  0.00  0.00    +0.098 C 
BRANCH  24  26
ATOM     25  C   UNL     1       0.084   0.954   0.753  0.00  0.00    +0.006 C 
ATOM     26  C   UNL     1       1.490   0.510   1.123  0.00  0.00    +0.021 C 
ENDBRANCH  24  26
BRANCH  24  27
ATOM     27  C   UNL     1       1.266   0.782   3.677  0.00  0.00    +0.178 C 
BRANCH  27  28
ATOM     28  O   UNL     1       0.013   1.446   3.757  0.00  0.00    -0.393 OA
ATOM     29  H   UNL     1       0.185   2.399   3.857  0.00  0.00    +0.209 HD
ENDBRANCH  27  28
ENDBRANCH  24  27
ENDBRANCH  20  24
ENDBRANCH   1  21
TORSDOF 5
