REMARK  Name = 
REMARK  4 active torsions:
REMARK  status: ('A' for Active; 'I' for Inactive)
REMARK    1  A    between atoms: C_1  and  C_2
REMARK    2  A    between atoms: C_2  and  C_3
REMARK    3  A    between atoms: C_2  and  C_4
REMARK    4  A    between atoms: C_4  and  N_5
REMARK                            x       y       z     vdW  Elec       q    Type
REMARK                         _______ _______ _______ _____ _____    ______ ____
ROOT
ATOM      1  N   UNL     1       4.500  -1.059   0.803  0.00  0.00    -0.329 N 
ATOM      2  C   UNL     1       5.269  -0.571   1.828  0.00  0.00    +0.200 A 
ATOM      3  N   UNL     1       6.548  -0.724   1.597  0.00  0.00    -0.232 NA
ATOM      4  C   UNL     1       6.615  -1.357   0.370  0.00  0.00    +0.129 A 
ATOM      5  C   UNL     1       5.339  -1.593  -0.154  0.00  0.00    +0.081 A 
ATOM      6  C   UNL     1       5.183  -2.248  -1.409  0.00  0.00    +0.026 A 
ATOM      7  C   UNL     1       3.947  -2.545  -2.029  0.00  0.00    +0.012 A 
ATOM      8  C   UNL     1       3.914  -3.190  -3.264  0.00  0.00    +0.001 A 
ATOM      9  C   UNL     1       5.103  -3.542  -3.888  0.00  0.00    +0.002 A 
ATOM     10  C   UNL     1       6.324  -3.250  -3.274  0.00  0.00    +0.028 A 
ATOM     11  C   UNL     1       6.397  -2.610  -2.046  0.00  0.00    +0.075 A 
ATOM     12  N   UNL     1       7.617  -2.376  -1.541  0.00  0.00    -0.230 NA
ATOM     13  C   UNL     1       7.761  -1.760  -0.348  0.00  0.00    +0.145 A 
ATOM     14  N   UNL     1       9.038  -1.552   0.120  0.00  0.00    -0.341 N 
ATOM     15  H   UNL     1       9.807  -1.866  -0.447  0.00  0.00    +0.144 HD
ATOM     16  H   UNL     1       9.158  -1.093   1.011  0.00  0.00    +0.144 HD
ENDROOT
BRANCH   1  17
ATOM     17  C   UNL     1       3.050  -1.011   0.823  0.00  0.00    +0.126 C 
BRANCH  17  19
ATOM     18  C   UNL     1       0.936  -0.075  -0.154  0.00  0.00    +0.009 C 
ATOM     19  C   UNL     1       2.450   0.113  -0.040  0.00  0.00    +0.003 C 
ATOM     20  C   UNL     1       2.757   1.500   0.531  0.00  0.00    +0.009 C 
ENDBRANCH  17  19
ENDBRANCH   1  17
TORSDOF 2
