REMARK  Name = 
REMARK  8 active torsions:
REMARK  status: ('A' for Active; 'I' for Inactive)
REMARK    1  A    between atoms: C_1  and  C_2
REMARK    2  A    between atoms: C_4  and  N_8
REMARK    3  A    between atoms: N_8  and  C_9
REMARK    4  A    between atoms: C_10  and  S_15
REMARK    5  A    between atoms: S_15  and  N_18
REMARK    6  A    between atoms: N_21  and  C_22
REMARK    7  A    between atoms: C_22  and  C_23
REMARK    8  A    between atoms: C_22  and  C_24
REMARK                            x       y       z     vdW  Elec       q    Type
REMARK                         _______ _______ _______ _____ _____    ______ ____
ROOT
ATOM      1  C   UNL     1      -3.063  -2.353  -0.210  0.00  0.00    +0.061 A 
ATOM      2  C   UNL     1      -3.854  -1.923  -1.281  0.00  0.00    +0.148 A 
ATOM      3  C   UNL     1      -5.219  -2.194  -1.254  0.00  0.00    +0.141 A 
ATOM      4  N   UNL     1      -5.848  -2.839  -0.242  0.00  0.00    -0.261 NA
ATOM      5  C   UNL     1      -5.080  -3.234   0.787  0.00  0.00    +0.112 A 
ATOM      6  C   UNL     1      -3.713  -3.017   0.845  0.00  0.00    +0.045 A 
ENDROOT
BRANCH   2   7
ATOM      7  S   UNL     1      -3.300  -1.127  -2.758  0.00  0.00    +0.079 S 
ATOM      8  O   UNL     1      -3.910  -1.858  -3.849  0.00  0.00    -0.150 OA
ATOM      9  O   UNL     1      -3.546   0.283  -2.545  0.00  0.00    -0.150 OA
BRANCH   7  10
ATOM     10  N   UNL     1      -1.663  -1.396  -2.826  0.00  0.00    -0.169 N 
ATOM     11  C   UNL     1      -0.839  -0.740  -3.725  0.00  0.00    +0.319 C 
ATOM     12  O   UNL     1      -1.242  -0.150  -4.713  0.00  0.00    -0.251 OA
ATOM     13  N   UNL     1       0.476  -0.828  -3.369  0.00  0.00    -0.296 N 
ATOM     14  H   UNL     1      -1.272  -1.823  -1.999  0.00  0.00    +0.178 HD
ATOM     15  H   UNL     1       0.703  -1.238  -2.479  0.00  0.00    +0.151 HD
BRANCH  13  16
ATOM     16  C   UNL     1       1.526  -0.156  -4.116  0.00  0.00    +0.068 C 
ATOM     17  C   UNL     1       1.659   1.295  -3.661  0.00  0.00    +0.027 C 
ATOM     18  C   UNL     1       2.847  -0.899  -3.943  0.00  0.00    +0.027 C 
ENDBRANCH  13  16
ENDBRANCH   7  10
ENDBRANCH   2   7
BRANCH   1  19
ATOM     19  N   UNL     1      -1.678  -2.123  -0.052  0.00  0.00    -0.313 N 
ATOM     20  H   UNL     1      -1.202  -2.911   0.391  0.00  0.00    +0.152 HD
BRANCH  19  24
ATOM     21  C   UNL     1       2.636   0.179   0.662  0.00  0.00    +0.044 C 
ATOM     22  C   UNL     1       1.148   0.237   0.483  0.00  0.00    -0.049 A 
ATOM     23  C   UNL     1       0.398  -0.940   0.345  0.00  0.00    +0.026 A 
ATOM     24  C   UNL     1      -1.000  -0.906   0.206  0.00  0.00    +0.032 A 
ATOM     25  C   UNL     1      -1.638   0.336   0.204  0.00  0.00    +0.023 A 
ATOM     26  C   UNL     1      -0.903   1.514   0.357  0.00  0.00    +0.002 A 
ATOM     27  C   UNL     1       0.482   1.465   0.501  0.00  0.00    +0.003 A 
ENDBRANCH  19  24
ENDBRANCH   1  19
TORSDOF 5
