REMARK  Name = 
REMARK  6 active torsions:
REMARK  status: ('A' for Active; 'I' for Inactive)
REMARK    1  A    between atoms: C_1  and  C_2
REMARK    2  A    between atoms: C_2  and  N_3
REMARK    3  A    between atoms: N_3  and  C_4
REMARK    4  A    between atoms: C_4  and  C_5
REMARK    5  A    between atoms: N_8  and  C_9
REMARK    6  A    between atoms: N_23  and  C_25
REMARK                            x       y       z     vdW  Elec       q    Type
REMARK                         _______ _______ _______ _____ _____    ______ ____
ROOT
ATOM      1  C   UNL     1       5.869   2.658  -2.374  0.00  0.00    +0.120 C 
ATOM      2  C   UNL     1       6.107   3.174  -3.801  0.00  0.00    +0.041 C 
ATOM      3  C   UNL     1       7.582   3.532  -4.096  0.00  0.00    +0.070 C 
ATOM      4  C   UNL     1       8.320   3.947  -2.766  0.00  0.00    +0.076 C 
ATOM      5  C   UNL     1       9.739   4.585  -2.938  0.00  0.00    +0.092 C 
ATOM      6  C   UNL     1       9.702   5.628  -3.996  0.00  0.00    -0.017 A 
ATOM      7  C   UNL     1      10.483   6.726  -4.270  0.00  0.00    +0.087 A 
ATOM      8  N   UNL     1      10.001   7.302  -5.430  0.00  0.00    -0.360 N 
ATOM      9  C   UNL     1       8.929   6.581  -5.909  0.00  0.00    +0.047 A 
ATOM     10  C   UNL     1       8.126   6.727  -7.040  0.00  0.00    +0.026 A 
ATOM     11  C   UNL     1       7.117   5.768  -7.223  0.00  0.00    +0.002 A 
ATOM     12  C   UNL     1       6.909   4.724  -6.309  0.00  0.00    +0.005 A 
ATOM     13  C   UNL     1       7.701   4.608  -5.158  0.00  0.00    -0.029 A 
ATOM     14  C   UNL     1       8.727   5.552  -5.011  0.00  0.00    +0.007 A 
ATOM     15  N   UNL     1       8.322   2.763  -1.776  0.00  0.00    +0.237 N 
ATOM     16  C   UNL     1       7.097   1.859  -1.898  0.00  0.00    +0.154 C 
ATOM     17  C   UNL     1       9.570   1.923  -1.735  0.00  0.00    +0.191 C 
ATOM     18  H   UNL     1      10.389   8.122  -5.879  0.00  0.00    +0.165 HD
ATOM     19  H   UNL     1       8.242   3.188  -0.839  0.00  0.00    +0.203 HD
ENDROOT
BRANCH   1  23
ATOM     20  N   UNL     1       2.956   0.772  -1.128  0.00  0.00    -0.286 N 
ATOM     21  C   UNL     1       4.152   1.455  -1.095  0.00  0.00    +0.303 C 
ATOM     22  O   UNL     1       4.800   1.652  -0.068  0.00  0.00    -0.253 OA
ATOM     23  N   UNL     1       4.626   1.905  -2.300  0.00  0.00    -0.291 N 
ATOM     24  H   UNL     1       3.956   1.990  -3.050  0.00  0.00    +0.151 HD
BRANCH  20  26
ATOM     25  C   UNL     1       2.841  -1.048   0.543  0.00  0.00    +0.024 C 
ATOM     26  C   UNL     1       2.378   0.347   0.150  0.00  0.00    +0.106 C 
ENDBRANCH  20  26
BRANCH  20  27
ATOM     27  C   UNL     1       2.215   0.392  -2.336  0.00  0.00    +0.106 C 
ATOM     28  C   UNL     1       1.201   1.453  -2.732  0.00  0.00    +0.024 C 
ENDBRANCH  20  27
ENDBRANCH   1  23
TORSDOF 3
