REMARK  Name = 
REMARK  6 active torsions:
REMARK  status: ('A' for Active; 'I' for Inactive)
REMARK    1  A    between atoms: C_1  and  C_2
REMARK    2  A    between atoms: C_2  and  N_3
REMARK    3  A    between atoms: N_3  and  C_4
REMARK    4  A    between atoms: C_4  and  C_5
REMARK    5  A    between atoms: N_8  and  C_9
REMARK    6  A    between atoms: N_11  and  C_25
REMARK                            x       y       z     vdW  Elec       q    Type
REMARK                         _______ _______ _______ _____ _____    ______ ____
ROOT
ATOM      1  C   UNL     1       5.981   0.969  -2.887  0.00  0.00    +0.143 C 
ATOM      2  C   UNL     1       5.753   1.802  -4.198  0.00  0.00    +0.158 C 
ATOM      3  N   UNL     1       7.066   2.192  -4.912  0.00  0.00    +0.240 N 
ATOM      4  C   UNL     1       8.013   0.978  -5.093  0.00  0.00    +0.100 C 
ATOM      5  C   UNL     1       9.362   1.392  -5.773  0.00  0.00    +0.096 C 
ATOM      6  C   UNL     1      10.226   2.100  -4.797  0.00  0.00    -0.016 A 
ATOM      7  C   UNL     1      11.255   3.003  -4.917  0.00  0.00    +0.087 A 
ATOM      8  N   UNL     1      11.739   3.253  -3.648  0.00  0.00    -0.360 N 
ATOM      9  C   UNL     1      11.027   2.527  -2.716  0.00  0.00    +0.047 A 
ATOM     10  C   UNL     1      11.140   2.414  -1.330  0.00  0.00    +0.026 A 
ATOM     11  C   UNL     1      10.249   1.538  -0.688  0.00  0.00    +0.003 A 
ATOM     12  C   UNL     1       9.275   0.822  -1.397  0.00  0.00    +0.009 A 
ATOM     13  C   UNL     1       9.153   0.972  -2.783  0.00  0.00    -0.007 A 
ATOM     14  C   UNL     1      10.072   1.817  -3.422  0.00  0.00    +0.011 A 
ATOM     15  C   UNL     1       8.162   0.326  -3.688  0.00  0.00    +0.006 C 
ATOM     16  C   UNL     1       7.008  -0.134  -3.154  0.00  0.00    +0.010 C 
ATOM     17  C   UNL     1       6.765   2.957  -6.166  0.00  0.00    +0.191 C 
ATOM     18  H   UNL     1       7.559   2.833  -4.274  0.00  0.00    +0.204 HD
ATOM     19  H   UNL     1      12.521   3.858  -3.430  0.00  0.00    +0.165 HD
ENDROOT
BRANCH   1  23
ATOM     20  N   UNL     1       2.591   0.326  -1.586  0.00  0.00    -0.286 N 
ATOM     21  C   UNL     1       3.644   1.026  -2.136  0.00  0.00    +0.303 C 
ATOM     22  O   UNL     1       3.578   2.212  -2.451  0.00  0.00    -0.253 OA
ATOM     23  N   UNL     1       4.790   0.319  -2.374  0.00  0.00    -0.288 N 
ATOM     24  H   UNL     1       4.891  -0.579  -1.930  0.00  0.00    +0.151 HD
BRANCH  20  26
ATOM     25  C   UNL     1       1.243   1.663  -0.002  0.00  0.00    +0.024 C 
ATOM     26  C   UNL     1       1.327   1.042  -1.388  0.00  0.00    +0.106 C 
ENDBRANCH  20  26
BRANCH  20  27
ATOM     27  C   UNL     1       2.609  -1.078  -1.160  0.00  0.00    +0.106 C 
ATOM     28  C   UNL     1       2.338  -2.020  -2.323  0.00  0.00    +0.024 C 
ENDBRANCH  20  27
ENDBRANCH   1  23
TORSDOF 3
